500 

O 1.29407 -6.54204 -1.75282 
O -1.23322 -2.64592 3.09393 
O -1.32297 -5.27311 5.53337 
O 1.58888 -0.860451 -2.63265 
O 0.500485 -3.91606 -1.10763 
O 0.0295454 -0.13566 -0.572433 
O 4.77717 -2.82874 -1.98965 
O 2.25806 -2.89994 4.28691 
O 0.206573 -1.91884 -2.99696 
O -0.655566 0.768877 1.64981 
O 4.18499 -1.04371 1.43398 
O -3.67721 -0.0938458 -4.15476 
O -1.84869 -3.27965 3.88549 
O -5.60469 -2.51949 1.52377 
O -1.57647 -2.12162 2.15674 
O 3.0281 3.27426 -4.52164 
O 3.1062 -0.749274 1.68616 
O 0.998155 -0.0613069 -2.14417 
O -4.47766 -1.96118 -2.23433 
O -3.38517 -2.00939 -2.25852 
O -3.80875 -2.74013 -2.86481 
O -1.77137 -4.16185 -4.17669 
O -1.11538 -1.57313 -1.59873 
O -2.20197 6.91469 3.73736 
O 4.19352 3.81272 -0.481489 
O 0.548235 3.51778 -3.65678 
O -0.971385 -3.02448 -5.34252 
O 0.145254 -3.87292 1.70461 
O 2.05055 1.42478 -2.29385 
O -1.79933 -2.18675 -3.59941 
O 0.87299 -2.12514 1.71581 
O -2.45225 1.51102 0.420229 
O -2.3497 -1.52697 1.62039 
O 4.25151 1.16777 -0.355903 
O 2.32064 3.69015 -3.79101 
O -3.87638 -2.08712 3.28513 
O -2.80607 -2.59332 1.15789 
O 5.2911 0.741912 2.37655 
O 2.64032 -0.561505 3.27125 
O -1.57871 3.59701 -5.1897 
O -3.07167 -3.92953 -2.00447 
O 2.03098 -2.18975 3.56252 
O 0.192991 -0.293366 -4.00388 
O -4.46858 -0.330551 -1.42779 
O 1.00825 -1.05652 -0.0115526 
O 0.387777 3.78289 2.79784 
O 0.149371 -3.53261 0.703901 
O 1.76674 3.08751 0.340374 
O 3.38043 -4.88605 0.988733 
O 1.03253 3.37175 1.04792 
O -2.74953 5.47843 3.38889 
O -1.70731 0.370692 -1.14683 
O -1.42221 -4.03106 0.395058 
O 1.08127 -0.309685 -0.863159 
O -0.344796 -3.8741 -3.11461 
O 2.9688 1.82358 1.67836 
O 2.78215 -1.86025 0.95809 
O 4.0342 -1.77269 -3.27276 
O -2.56049 -0.544909 0.760003 
O 1.1243 0.273944 1.55071 
O 4.07131 0.514163 2.41058 
O -1.37133 2.65828 1.21225 
O 2.03063 -4.93163 -2.3224 
O -3.03538 3.86274 1.56453 
O 3.68425 3.35093 3.7807 
O 1.24399 -3.30926 -3.18892 
O 0.205739 0.580748 0.978426 
O -2.87642 -1.07617 5.15532 
O -0.523633 -4.85632 -1.37441 
O -4.65535 -4.07298 -1.99452 
O 2.80958 1.92403 -2.8471 
O 1.36906 -2.63009 -0.341954 
O -1.69777 -2.68329 -2.66127 
O 1.63696 -2.09892 -1.34214 
O 1.59296 8.0544 -0.781228 
O -4.76227 3.36649 0.958981 
O -0.0466973 1.00038 3.70647 
O 2.38084 2.20367 0.798942 
O 0.972009 2.82022 -1.79177 
O -0.50079 1.04254 2.70045 
O -2.3337 2.07803 1.32587 
O 0.299693 2.78036 2.45798 
O 0.783659 0.0759455 0.204656 
O 1.93496 0.38866 -2.44303 
O -1.1629 -0.114535 0.480583 
O 3.1837 2.4329 3.69614 
O -0.21909 2.56704 1.48672 
O 3.45438 -1.09613 3.67113 
O 5.67046 1.17529 1.36224 
O 3.58379 3.6775 -2.67614 
O -1.1509 2.9001 -0.529754 
O -3.58489 -1.94984 0.804348 
O 0.995378 1.81807 -2.29229 
O -1.22563 1.85371 -0.923823 
O -2.08749 2.41353 3.86399 
O -3.04748 -0.99287 -4.16294 
O -2.83969 -0.0639071 -5.75669 
O 0.986193 2.22474 1.85064 
O 5.49349 -1.30036 -1.01425 
O -0.940067 3.63178 1.39582 
O -3.80743 2.60747 4.60627 
O 2.94574 0.0157269 2.42993 
O 4.17936 -1.59175 2.46956 
O -1.31752 -1.61785 -4.37521 
O 2.23923 1.30369 -1.23549 
O -3.47976 3.66163 -4.78041 
O 2.81262 0.204461 1.31862 
O -0.517474 -2.02996 -5.02637 
O -0.867125 1.74415 1.21798 
O 1.81691 1.96296 -3.18888 
O -2.57317 -0.210583 -4.70643 
O -1.82097 0.401576 3.34152 
O 0.101142 -2.49732 0.928934 
O -0.0504429 -0.110879 -2.16549 
O -0.292237 -1.04406 -3.29009 
O 3.66534 0.980629 3.27673 
O 1.64196 -2.75793 -2.26867 
O 3.76575 -0.711887 -0.639386 
O -2.12365 1.75064 -2.45473 
O -1.73352 0.798899 -2.68692 
O 2.86617 0.815349 -2.93687 
O -0.634279 1.0194 -2.79389 
O 2.62964 -2.50833 -1.35008 
O 5.54868 -0.596517 2.00678 
O 0.0895224 1.68709 0.71269 
O 1.8996 -0.327408 -1.63764 
O -0.249095 1.24031 -1.12012 
O 3.59482 0.944521 1.52192 
O 0.506276 -2.78178 5.09134 
O 3.90226 0.514283 4.21154 
O 1.19288 1.2111 2.22283 
O -2.23954 -1.35325 2.67351 
O 1.99942 -4.50395 -1.37408 
O -1.44102 3.97925 -0.650979 
O -3.20566 4.59956 3.03916 
O 1.08863 -3.03274 -1.30221 
O -1.53004 -2.64477 0.0674255 
O -3.31873 1.90521 -1.28482 
O -0.712252 0.909932 0.572732 
O -1.2894 1.55843 2.20024 
O -0.776866 -2.30958 1.42201 
O 2.86267 1.06767 2.5542 
O 0.601701 -2.03212 -1.45406 
O 3.13568 1.82651 0.0517882 
O -3.82424 1.57031 -3.34297 
O 1.6537 -1.50603 1.20175 
O 1.56784 -1.23097 -3.63023 
O -2.08807 4.3869 1.81234 
O -4.73603 1.19196 0.832579 
O -6.47956 -2.07583 0.592301 
O 2.50091 2.21973 -0.785892 
O -2.68143 2.09212 -0.455866 
O 2.89187 -1.36316 6.38494 
O -0.121219 -0.423313 -6.95303 
O -2.59023 -1.6389 0.558794 
O 0.129541 -5.54355 4.52081 
O -3.20031 -0.530114 -3.18789 
O 0.352236 -3.08696 -0.402289 
O -1.90069 2.82903 -2.6026 
O 0.12735 -2.81778 2.02538 
O 0.558508 -1.33229 3.56068 
O 2.17671 2.56552 -4.05908 
O 3.39277 -2.97608 6.70881 
O -3.77404 0.891288 0.470302 
O -0.565627 3.67126 -1.15495 
O 1.75696 2.11651 -0.0861604 
O 3.74826 1.70397 -2.26999 
O -0.459546 -0.75764 -1.3862 
O 3.16652 -1.27345 2.66399 
O -2.10931 3.35833 1.39825 
O 3.17654 -2.48187 0.179515 
O -4.80176 -2.1978 2.74294 
O 0.623613 -0.572265 -3.02907 
O 0.630482 -1.22588 1.22792 
O -1.50168 -0.555878 -1.59922 
O -0.419192 5.03716 -0.0703118 
O -4.23969 4.38556 2.69124 
O -3.42904 5.71153 -0.411843 
O -2.55299 3.29766 2.4222 
O -3.03061 3.84849 0.526928 
O -0.762758 0.25266 3.33418 
O -3.15654 0.0270493 0.0247304 
O -1.16311 1.21679 3.63964 
O -6.26486 1.08955 0.107797 
O 0.765338 0.471669 -3.26528 
O 6.1359 -3.74502 -2.79884 
O -3.35651 2.02394 0.401779 
O 0.536328 -2.0105 -4.73223 
O 2.40794 -3.01672 -0.288388 
O 1.26428 -1.25345 2.20702 
O -0.442727 2.078 -4.90118 
O -0.454902 -1.99652 -3.85173 
O 1.81122 0.892916 4.07376 
O -2.70213 -2.50574 -3.0156 
O 0.510118 2.95773 -2.76184 
O -0.825309 -2.95449 4.0478 
O -3.65053 3.03088 0.145279 
O -2.94449 1.05353 -2.62527 
O 0.325743 2.75947 0.584349 
O -6.32563 -2.23369 4.13031 
O 1.34599 -0.525692 0.866245 
O -1.79447 -2.24333 1.04576 
O 0.0196777 2.8396 -0.460056 
O 2.05687 -3.45761 -1.57644 
O -1.7329 0.772491 0.379987 
O -5.46465 -3.79173 -2.62262 
O 2.07632 -4.25159 2.54668 
O 1.884 -4.59768 1.47462 
O -1.20522 1.12402 -1.77312 
O -0.531847 2.69316 -2.50475 
O 2.64586 1.50469 3.59162 
O -1.81519 2.52521 2.16899 
O -3.72918 4.44194 -1.8375 
O -0.722924 4.38074 -2.22756 
O 0.325556 0.582175 -5.29652 
O 1.58895 4.15126 0.41034 
O 2.94813 -0.638132 0.642529 
O -3.00879 2.92072 -1.05842 
O -3.40163 1.99399 1.47987 
O -4.59744 -4.60578 -5.5453 
O -0.541214 -1.07983 -0.285783 
O 2.91823 2.12684 2.72853 
O -2.49377 0.31104 -3.2351 
O -0.465358 -1.2692 1.28952 
O -1.10656 -4.60939 4.05367 
O 0.376153 -1.09875 -0.873436 
O 1.17523 2.80032 -0.706262 
O -1.9468 -4.59492 -1.27321 
O 3.31878 3.81813 1.76693 
O 0.414702 0.446107 -1.39849 
O -4.52376 0.750579 -1.85296 
O 3.48344 -1.09748 4.8047 
O 2.04743 0.510125 1.99006 
O -0.342163 -0.224525 2.4661 
O -1.20679 1.90139 4.4853 
O 2.02475 -0.517807 1.65271 
O -1.19598 -4.19899 -1.88469 
O 2.13593 -0.13761 4.11741 
O -7.22223 -2.95012 -3.40926 
O -0.855586 -0.293846 1.48102 
O 2.08074 -1.16957 0.29067 
O 5.27936 1.33721 3.98509 
O 4.443 4.06945 -3.4993 
O 0.796406 1.27302 -0.858945 
O -1.60454 -0.971772 1.02019 
O 7.01542 -5.44991 -3.82017 
O 1.84387 -1.0663 -0.788002 
O 0.145505 -1.19673 2.1799 
O 6.16431 2.37705 3.09058 
O 3.65229 -4.77737 -1.82437 
O -1.96555 -0.56214 -2.58486 
O 0.73471 -0.349917 2.53978 
O -3.23232 4.80084 0.0975469 
O -1.09638 7.23382 -0.554867 
O 3.19017 -0.23708 -3.25178 
O 0.111568 1.5599 1.80379 
O 1.9895 -2.29827 0.466705 
O -4.57342 -2.63896 1.77124 
O -2.73641 0.379065 -0.897485 
O -1.41394 -0.569443 3.03279 
O 2.27211 1.1862 -0.126133 
O -3.41242 0.864091 -1.63624 
O 1.12432 -1.05485 -1.62986 
O 0.22211 -0.316462 1.55118 
O -2.09891 -0.0475446 -0.11095 
O 1.09239 -1.82649 -2.34804 
O -3.67195 -1.0411 -1.63672 
O 0.529718 -4.99292 3.68304 
O 0.691508 2.02632 -0.123684 
O 1.78009 -0.35063 2.64667 
O -2.78771 2.16137 2.3648 
O -2.04789 1.62101 2.96348 
O -0.879358 -0.915141 -2.42398 
O 2.54915 -1.11958 -3.26421 
O -1.36727 1.76044 0.159028 
O -2.80549 0.720662 3.29345 
O -2.36843 4.30853 -0.245619 
O -2.03349 4.21039 0.770648 
O 5.41538 2.52697 0.391426 
O -2.45132 -1.43265 -3.18811 
O -1.84035 0.133084 1.26917 
O -3.65823 1.55591 2.41667 
O -0.318437 -1.88801 -0.985953 
O -2.2163 1.87559 -1.38566 
O -0.303591 1.73186 -2.02245 
O -2.59823 -2.33804 2.32103 
O -1.02212 -1.12418 2.17495 
O -4.69335 -3.04303 -2.2891 
O -0.69852 2.61023 0.410365 
O 4.68588 0.0478438 -2.22312 
O 4.62969 1.16617 1.73153 
O 1.23368 2.62347 2.87486 
O 0.394269 -5.32126 -1.22534 
O 2.04643 -1.33442 -4.54816 
O -0.40925 -1.08012 -4.37712 
O 2.26689 -1.98613 6.98413 
O 3.61444 -2.084 -1.33716 
O -5.86301 -2.21052 2.54763 
O -3.82832 0.357848 -0.713961 
O -0.306799 0.0646677 -3.16218 
O -4.0155 -1.75094 1.7453 
O 3.22167 -3.12781 3.74391 
O 2.72837 -0.538628 -0.400496 
O -1.0546 0.142114 -2.27269 
O 2.39234 -1.55842 1.93587 
O -3.99523 2.61839 6.70947 
O 1.65978 -3.70206 -0.594687 
O 3.97028 4.72928 1.96908 
O 0.85076 0.692237 3.14225 
O -3.65993 -0.0737583 0.974572 
O 2.14615 -3.13665 -4.66448 
O 5.00367 -3.61331 -1.20455 
O -2.93191 2.03298 -3.05368 
O -2.05625 1.20767 -0.561193 
O 0.920087 1.50278 -3.51222 
O 1.26101 -5.22931 0.824428 
O -3.5038 -0.955434 0.380031 
O 3.91179 -0.555831 2.36734 
O 2.19488 -3.52352 -5.68089 
O -2.32455 0.912799 -1.78133 
O -0.138307 4.6478 -4.40841 
O -0.880597 -3.60992 3.0302 
O -1.75038 -1.61946 -2.43289 
O 1.04607 -3.66718 -2.1629 
O -4.36919 -1.45638 -0.00921109 
O 0.388242 0.913955 -2.40601 
O 3.9777 2.98155 1.86105 
O 1.17324 -3.11237 -5.20876 
O 3.28917 1.39919 -0.951157 
O 2.66895 3.00567 -3.07334 
O -1.01093 4.80738 -1.24684 
O 0.511436 -5.7597 2.91087 
O 1.48357 1.99329 -1.34402 
O 2.03826 -1.90794 4.66045 
O 1.85027 0.595337 0.832775 
O 0.209874 -1.15809 -2.17892 
O 4.7885 -0.579855 -1.3569 
O -3.03834 -2.70117 -0.9873 
O -1.26741 -1.87929 -0.550535 
O 1.25037 -0.235143 -3.90217 
O -0.370843 1.84633 -0.265859 
O -0.692503 3.0837 -5.1657 
O 0.803026 -3.95623 -0.0138513 
O -1.00618 0.859373 -0.452708 
O -5.31478 -1.35563 -1.87231 
O -0.998283 -1.776 0.520731 
O 2.60325 -0.465409 -2.40925 
O 0.976625 -2.81104 3.26722 
O 2.78134 0.31102 0.24991 
O -0.823817 -3.0882 0.662464 
O 2.97267 -2.08617 4.13226 
O 2.81328 0.450425 3.5056 
O -2.73905 0.564998 -6.63183 
O -2.67469 -0.940701 -0.311787 
O 0.991264 1.27146 1.15289 
O -5.50728 -5.99674 1.50178 
O 5.78179 -3.27554 -1.79 
O -2.36845 5.38595 -0.410589 
O 2.55408 -3.09113 0.842254 
O -2.80231 3.0835 3.42256 
O 1.37862 -3.79875 3.19076 
O -3.84505 -0.0334547 -2.27983 
O 5.52585 -2.23862 5.915 
O 2.62389 0.443257 -0.813537 
O 1.90643 0.616844 3.02362 
O -0.0113211 3.59024 -2.07521 
O 1.98796 2.17213 2.27594 
O -1.35653 -0.0465735 -3.28542 
O 1.8158 -0.123194 0.0115991 
O -2.25949 3.24899 -0.329862 
O -3.81466 4.44274 0.980947 
O 0.553138 -2.01714 -0.379579 
O 1.47 -4.45991 -3.37947 
O 1.64109 1.61497 -4.33088 
O 0.962477 4.40779 1.22713 
O -3.59445 2.60303 -4.5737 
O 5.13323 3.91675 -2.67049 
O -0.640894 0.286137 -1.32044 
O -1.27603 0.243352 -5.13057 
O -1.37027 6.321 -3.4059 
O -0.314118 3.04496 3.33423 
O -2.78266 2.5086 5.40794 
O -2.84713 5.77233 -1.40106 
O -0.893501 -1.98722 4.57467 
O -2.96134 2.87731 0.944158 
O -3.87431 3.56336 -1.28493 
O 3.24442 -3.57353 0.140224 
O 0.0127479 4.52806 -1.4081 
O 0.10924 0.87853 -0.118961 
O 0.0599448 -1.53914 0.412037 
O 4.4511 1.82671 3.36403 
O 4.5801 3.09837 4.46596 
O 1.13172 -4.13682 2.08956 
O -0.297865 5.35677 -2.04037 
O -2.15639 -3.15878 2.88643 
O -4.78345 3.53249 -0.780114 
O -4.62919 1.99788 -1.758 
O -0.493457 -3.76915 -0.0978505 
O 2.76463 -4.60951 0.0344686 
O -1.60967 -1.00096 -0.0424845 
O -0.358926 0.811718 -1.95254 
O 3.44307 1.68764 0.911571 
O -0.180121 2.72885 4.15509 
O -0.361888 -3.15519 1.39915 
O 3.87814 1.93456 -0.440736 
O 1.24114 -9.3512 3.2947 
O 0.912528 6.07513 -3.08117 
O -2.64303 2.76053 -5.71681 
O -3.15955 1.33504 0.933534 
O -2.55134 0.70586 -0.0231307 
O 5.2455 -4.92372 -4.49765 
O -1.36687 -2.99484 1.33249 
O 4.61892 2.73847 0.0821415 
O -2.8652 1.61908 -1.97332 
O -5.56272 -2.85752 -0.977615 
O 0.43127 -0.46106 -1.49774 
O 2.0211 -0.196391 -0.81149 
O -2.29683 -4.09518 0.545197 
O 6.67189 -0.538235 3.69069 
O 2.04212 -4.53041 -0.489839 
O -0.972249 2.32991 1.91523 
O 1.36364 -0.0728257 4.50565 
O -0.847379 -0.925358 0.542806 
O -1.10611 3.69554 3.83593 
O -2.0447 3.33186 -3.32476 
O -2.1442 -1.11354 -1.84396 
O 0.768218 -2.9197 0.362425 
O -0.277671 -2.61598 4.67242 
O 2.43369 -1.0987 8.63266 
O -2.14792 1.62806 2.06963 
O 2.80185 -3.58029 -3.03091 
O 1.752 4.40438 -3.87894 
O -1.99556 -2.21141 -4.50489 
O -0.518163 4.39173 -0.655565 
O 0.736746 0.451447 -0.576013 
O 3.57808 -5.63934 3.23296 
O 3.76733 -4.02871 1.0307 
O -4.52527 2.62102 -2.34532 
O -2.38222 4.94537 0.383536 
O 3.64601 0.84656 -2.46287 
O -3.93889 -5.15685 2.12741 
O -2.49274 -2.77682 -3.85271 
O -5.37264 0.51764 -1.5653 
O 0.0355567 0.413163 -4.48091 
O 1.50879 -1.78049 -0.0734764 
O 1.33114 -3.93683 -1.37161 
O -3.16157 4.20898 4.86221 
O 2.93575 4.12468 -1.45161 
O -1.40544 0.970724 2.82768 
O -2.05465 6.07138 3.51677 
O -1.84658 2.35037 -0.489788 
O -2.8472 1.29674 2.63368 
O -4.4853 -1.10075 -1.93122 
O 2.04258 1.29835 2.40208 
O 0.398328 -2.21278 -3.86108 
O -1.29809 5.84558 1.48139 
O -1.80131 -1.81264 0.209066 
O 1.21269 -0.952093 -4.42645 
O 0.980916 2.27799 -3.02863 
O -1.79565 4.80083 -0.785416 
O -2.76523 -0.882902 2.14309 
O 4.07453 -2.5844 -3.6206 
O 4.95418 -1.98132 -2.24322 
O 2.50565 -0.77218 2.36872 
O 1.82892 1.50191 0.613113 
O 3.46891 -0.220951 0.0552327 
O 1.6102 1.46187 -0.635119 
O 0.47515 1.36841 -1.66877 
O 1.36396 -4.39833 -2.52501 
O 1.26619 0.352138 2.42839 
O 0.00180565 -1.94934 1.68277 
O -4.34411 -2.1214 -0.623046 
O -5.09703 3.69112 0.148141 
O -2.76811 1.24688 -1.09345 
O 2.19582 -0.222332 0.810225 
O -4.0458 -1.2454 1.02154 
O -1.17795 -2.31447 -2.06772 
O -1.15804 -1.04301 6.57307 
O 1.07159 -0.578774 1.71268 
O 4.41513 1.19815 3.9834 
O 2.74587 -1.58419 3.41658 
O 6.95023 0.24156 -0.000581463 
O 1.87901 3.64397 1.03845 
O -0.334861 -3.54899 -5.11793 
O 1.36289 -5.21163 3.62571 
O -2.83007 4.22111 2.32981 
O 4.07604 2.51959 3.80909 
O 2.71165 0.991433 1.69037 
O -3.89108 0.0628166 1.807 
O 1.11774 -1.55245 -0.883219 
O 1.26956 1.01885 -2.67342 
O -4.59485 -4.64879 -1.349 
O 0.453613 -3.59692 4.647 
O -1.90863 0.150391 -2.0133 
O -1.94991 -0.447788 -0.851001 
O 3.14309 0.95399 -0.219464 
O -0.182726 3.92277 3.55003 
O -3.15068 -1.93791 1.65144 
O -2.15023 -4.05223 -1.95528 
O 3.48267 5.23932 2.45248 
